
   --- Expanded Deck Component Count ---
B's 9
E's 5
G's 4
R's 6
V's 4
tot: 28


    --- Expanded Netlist ---
* C:\Users\Cedric\Documents\manufacturable-ventilator\ltspice\bubble_volume_test.asc
b:x1:§length_past x1:length_past 0 v=v(x1:r)-v(x1:r)*cos(v(n002)-v(n004))-v(n003)*cos(v(n004))
b:x1:wedge_length x1:wedge_length 0 v=cos(v(n004))*v(n003)/cos(v(x1:gamma))
b:x1:wedge_area x1:n002 x1:n003 v=0.5*sin(v(n002))*v(n003)*v(x1:wedge_length)
b:x1:outside_area x1:n004 x1:n003 v=0.5*(v(x1:r)-v(x1:wedge_length))*v(x1:r)*sin(v(x1:omega))
b:x1:segment_area x1:n004 0 v=0.5*v(x1:r)**2*(v(x1:omega))
b:x1:x1:theta 0 x1:nc_02 i=2*acos(v(x1:nc_01)/v(x1:r)) rpar=1
b:x1:x1:a 0 x1:area_past i=0.5*v(x1:r)**2*(v(x1:nc_02) - sin(v(x1:nc_02))) rpar=1
e:x1:x1:r x1:nc_01 0 x1:r x1:length_past 1
b:x1:arc 0 nc_02 i=v(x1:r)*(v(x1:omega)) rpar=1
e:x1:alph x1:n001 0 n004 0 1
e:x1:gamma x1:gamma x1:n001 n002 0 1
g:x1:r 0 x1:r x1:r 0 1
r:x1:r x1:r 0 1
g:x1:error 0 x1:r x1:bubble_area n001 1
b:x1:theta 0 nc_01 i=acos(cos(v(x1:gamma))-v(n003)*cos(v(n004))/v(x1:r)) rpar=1
e:x1:omega x1:omega x1:gamma nc_01 0 1
e:x1:area_past x1:bubble_area x1:n002 0 x1:area_past 1
r:x1:1 nc_04 0 1
r:x1:2 nc_03 0 1
g:x1:x2:x1:1 0 x1:x2:p001 n003 0 1
r:x1:x2:x1:1 x1:x2:p001 0 1
r:x1:x2:1 0 x1:x2:p001 1
g:x1:x3:1 0 r x1:r 0 1
r:x1:x3:1 r 0 1
vdplus n003 0 1.405
valph n004 0 0.20944
vbeta n002 0 0.0160524
varea n001 0 13.933391
.dc varea 0 20 0.1
.end

WARNING: Less than two connections to node NC_04.  This node is used by R:X1:1.
WARNING: Less than two connections to node NC_03.  This node is used by R:X1:2.
Ignoring empty pin current: Ix(x1:alph)
Ignoring empty pin current: Ix(x1:step)
Ignoring empty pin current: Ix(x1:beta)
Ignoring empty pin current: Ix(x1:area)
Singular matrix:  Check node x1:r
   Iteration No. 1
Singular matrix:  Check node x1:r
   Iteration No. 1
Direct Newton iteration failed to find .op point.  (Use ".option noopiter" to skip.)
Starting Gmin stepping
Gmin = 10
Gmin = 1.07374
vernier = 0.5
Gmin = 0.274568
vernier = 0.666667
vernier = 0.888888
Gmin = 0.053011
vernier = 1
Gmin = 0.006089
Gmin = 0.000653801
Gmin = 7.02013e-05
Gmin = 7.53781e-06
Gmin = 8.09366e-07
Gmin = 8.6905e-08
Gmin = 9.33136e-09
Gmin = 1.00195e-09
Gmin = 1.07583e-10
Gmin = 1.15517e-11
Gmin = 1.24035e-12
Gmin = 1.33182e-13
Gmin = 0
Gmin stepping succeeded in finding the operating point.


Date: Tue Apr 14 17:17:00 2020
Total elapsed time: 0.173 seconds.

tnom = 27
temp = 27
method = trap
totiter = 944
traniter = 0
tranpoints = 0
accept = 0
rejected = 0
matrix size = 37
fillins = 17
solver = Normal
Matrix Compiler1:      77 opcodes  0.3/[0.1]/0.2
Matrix Compiler2: off
