
   --- Expanded Deck Component Count ---
B's 9
E's 5
G's 4
R's 3
V's 4
tot: 25


    --- Expanded Netlist ---
* C:\Users\Cedric\Documents\manufacturable-ventilator\ltspice\bubble_volume_test.asc
vdplus n003 0 1.405
valph n004 0 0.20944
vbeta n002 0 0.0160524
varea n001 0 13.921875
b:x1:length_past x1:length_past 0 v=v(r)-v(r)*cos(v(n002)-v(n004))-v(n003)*cos(v(n004))
b:x1:triangular_area x1:n003 x1:n004 v=0.5*cos(v(n004))*v(n003)*v(x)
b:x1:curved_area x1:n004 0 v=0.5*v(r)**2*(v(x1:omega)-sin(v(x1:omega)))
b:x1:x1:theta 0 x1:nc_02 i=2*acos(v(x1:nc_01)/v(r)) rpar=1
b:x1:x1:a 0 x1:area_past i=0.5*v(r)**2*(v(x1:nc_02) - sin(v(x1:nc_02))) rpar=1
e:x1:x1:r x1:nc_01 0 r x1:length_past 1
b:x1:arc 0 arc i=v(r)*(v(x1:omega)) rpar=1
e:x1:alph x1:n001 0 n004 0 1
e:x1:gamma x1:gamma x1:n001 n002 0 1
g:x1:r 0 r r 0 1
r:x1:r r 0 1
g:x1:error 0 r x1:bubble_area x1:n002 1
b:x1:theta 0 theta i=acos(cos(v(x1:gamma))-v(n003)*cos(v(n004))/v(r)) rpar=1
e:x1:omega x1:omega x1:gamma theta 0 1
e:x1:area_past x1:bubble_area x1:n003 0 x1:area_past 1
g:x1:x2:x1:1 0 x1:x2:nc_01 n003 0 1
r:x1:x2:x1:1 x1:x2:nc_01 0 1
b:x1:x 0 x i=cos(v(n002)-v(x1:omega)/2)*v(n003)/sin(v(x1:omega)/2-v(x1:gamma)) rpar=1
g:x1:x3:x1:1 0 x1:x3:nc_01 n001 0 1
r:x1:x3:x1:1 x1:x3:nc_01 0 1
b:x1:area x1:n002 0 v=uramp(v(n001))
.op
.end

Ignoring empty pin current: Ix(x1:alph)
Ignoring empty pin current: Ix(x1:beta)
Ignoring empty pin current: Ix(x1:step)
Ignoring empty pin current: Ix(x1:area)
Singular matrix:  Check node r
   Iteration No. 1
Direct Newton iteration failed to find .op point.  (Use ".option noopiter" to skip.)
Starting Gmin stepping
Gmin = 10
Gmin = 1.07374
Gmin = 0.115292
Gmin = 0.0123794
vernier = 0.5
vernier = 0.666667
Gmin = 0.00463511
vernier = 0.888888
vernier = 1
Gmin = 0.000653801
Gmin = 7.02013e-05
Gmin = 7.53781e-06
Gmin = 8.09366e-07
Gmin = 8.6905e-08
Gmin = 9.33136e-09
Gmin = 1.00195e-09
Gmin = 1.07583e-10
Gmin = 1.15517e-11
Gmin = 1.24035e-12
Gmin = 1.33182e-13
Gmin = 0
Gmin stepping succeeded in finding the operating point.


Date: Wed Apr 15 18:04:31 2020
Total elapsed time: 0.073 seconds.

tnom = 27
temp = 27
method = trap
totiter = 582
traniter = 0
tranpoints = 0
accept = 0
rejected = 0
matrix size = 34
fillins = 31
solver = Normal
Matrix Compiler1: 1.27 KB object code size
Matrix Compiler2: 2.61 KB object code size  0.3/0.3/[0.2]

